*SPEF "IEEE 1481-1998"
*DESIGN "elevator"
*DATE "Wed Jun 26 17:39:45 2019"
*VENDOR "Cadence Design Systems, Inc."
*PROGRAM "Innovus"
*VERSION "17.11-s080_1"
*DESIGN_FLOW "COUPLING C" "PIN_CAP NONE" "NAME_SCOPE LOCAL"
*DIVIDER /
*DELIMITER :
*BUS_DELIMITER []
*T_UNIT 1 NS
*C_UNIT 1 PF
*R_UNIT 1 OHM
*L_UNIT 1 HENRY

// MMMC spef file for corner '_default_rc_corner_'

*NAME_MAP

*1 FE_OFN0_an_reset
*2 FE_DBTN1_an_reset
*3 FE_DBTN0_buttons_block
*4 clk
*5 an_reset
*6 buttons_block
*7 open_btn
*8 close_btn
*9 overload
*10 bell
*11 sensor_up
*12 sensor_down
*13 sensor_inside
*14 sensor_door[1]
*15 sensor_door[0]
*16 btn_in[7]
*17 btn_in[6]
*18 btn_in[5]
*19 btn_in[4]
*20 btn_in[3]
*21 btn_in[2]
*22 btn_in[1]
*23 btn_in[0]
*24 btn_up_out[6]
*25 btn_up_out[5]
*26 btn_up_out[4]
*27 btn_up_out[3]
*28 btn_up_out[2]
*29 btn_up_out[1]
*30 btn_up_out[0]
*31 btn_down_out[7]
*32 btn_down_out[6]
*33 btn_down_out[5]
*34 btn_down_out[4]
*35 btn_down_out[3]
*36 btn_down_out[2]
*37 btn_down_out[1]
*38 engine[1]
*39 engine[0]
*40 door[1]
*41 door[0]
*42 direction
*43 bell_out
*44 level_display[3]
*45 level_display[2]
*46 level_display[1]
*47 level_display[0]
*48 inactivate_in_levels[7]
*49 inactivate_in_levels[6]
*50 inactivate_in_levels[5]
*51 inactivate_in_levels[4]
*52 inactivate_in_levels[3]
*53 inactivate_in_levels[2]
*54 inactivate_in_levels[1]
*55 inactivate_in_levels[0]
*56 inactivate_out_up_levels[6]
*57 inactivate_out_up_levels[5]
*58 inactivate_out_up_levels[4]
*59 inactivate_out_up_levels[3]
*60 inactivate_out_up_levels[2]
*61 inactivate_out_up_levels[1]
*62 inactivate_out_down_levels[6]
*63 inactivate_out_down_levels[5]
*64 inactivate_out_down_levels[4]
*65 inactivate_out_down_levels[3]
*66 inactivate_out_down_levels[2]
*67 inactivate_out_down_levels[1]
*68 active_in_levels[7]
*69 active_in_levels[6]
*70 active_in_levels[5]
*71 active_in_levels[4]
*72 active_in_levels[3]
*73 active_in_levels[2]
*74 active_in_levels[1]
*75 active_in_levels[0]
*76 active_out_up_levels[6]
*77 active_out_up_levels[5]
*78 active_out_up_levels[4]
*79 active_out_up_levels[3]
*80 active_out_up_levels[2]
*81 active_out_up_levels[1]
*82 active_out_up_levels[0]
*83 active_out_down_levels[7]
*84 active_out_down_levels[6]
*85 active_out_down_levels[5]
*86 active_out_down_levels[4]
*87 active_out_down_levels[3]
*88 active_out_down_levels[2]
*89 active_out_down_levels[1]
*90 state[4]
*91 state[3]
*92 state[2]
*93 state[1]
*94 state[0]
*95 counter[15]
*96 counter[14]
*97 counter[13]
*98 counter[12]
*99 counter[11]
*100 counter[10]
*101 counter[9]
*102 counter[8]
*103 counter[7]
*104 counter[6]
*105 counter[5]
*106 counter[4]
*107 counter[3]
*108 counter[2]
*109 counter[1]
*110 counter[0]
*111 i_engine[1]
*112 i_engine[0]
*113 saved_state[3]
*114 saved_state[2]
*115 saved_state[1]
*116 saved_state[0]
*117 closing
*118 i_direction
*119 letout
*120 n_0
*121 n_1
*122 n_2
*123 n_3
*124 n_4
*125 n_7
*126 n_8
*127 n_9
*128 n_10
*129 n_11
*130 n_12
*131 n_13
*132 n_14
*133 n_15
*134 n_16
*135 n_17
*136 n_18
*137 n_19
*138 n_20
*139 n_21
*140 n_22
*141 n_23
*142 n_24
*143 n_25
*144 n_26
*145 n_27
*146 n_28
*147 n_29
*148 n_30
*149 n_31
*150 n_32
*151 n_33
*152 n_34
*153 n_35
*154 n_36
*155 n_37
*156 n_38
*157 n_39
*158 n_40
*159 n_41
*160 n_42
*161 n_43
*162 n_44
*163 n_45
*164 n_46
*165 n_47
*166 n_48
*167 n_49
*168 n_50
*169 n_51
*170 n_52
*171 n_53
*172 n_54
*173 n_55
*174 n_56
*175 n_57
*176 n_58
*177 n_59
*178 n_60
*179 n_61
*180 n_62
*181 n_63
*182 n_64
*183 n_65
*184 n_66
*185 n_67
*186 n_68
*187 n_69
*188 n_70
*189 n_71
*190 n_72
*191 n_73
*192 n_74
*193 n_75
*194 n_76
*195 n_77
*196 n_78
*197 n_79
*198 n_80
*199 n_81
*200 n_82
*201 n_83
*202 n_84
*203 n_85
*204 n_86
*205 n_87
*206 n_88
*207 n_89
*208 n_90
*209 n_91
*210 n_92
*211 n_93
*212 n_94
*213 n_95
*214 n_96
*215 n_97
*216 n_98
*217 n_99
*218 n_100
*219 n_101
*220 n_102
*221 n_103
*222 n_104
*223 n_105
*224 n_106
*225 n_107
*226 n_108
*227 n_109
*228 n_110
*229 n_111
*230 n_112
*231 n_113
*232 n_114
*233 n_115
*234 n_116
*235 n_117
*236 n_118
*237 n_119
*238 n_120
*239 n_121
*240 n_122
*241 n_123
*242 n_124
*243 n_125
*244 n_126
*245 n_127
*246 n_128
*247 n_129
*248 n_130
*249 n_131
*250 n_132
*251 n_133
*252 n_134
*253 n_135
*254 n_136
*255 n_137
*256 n_138
*257 n_139
*258 n_140
*259 n_141
*260 n_142
*261 n_143
*262 n_144
*263 n_145
*264 n_146
*265 n_147
*266 n_148
*267 n_149
*268 n_150
*269 n_151
*270 n_152
*271 n_153
*272 n_154
*273 n_155
*274 n_156
*275 n_157
*276 n_158
*277 n_159
*278 n_160
*279 n_161
*280 n_162
*281 n_163
*282 n_164
*283 n_166
*284 n_167
*285 n_168
*286 n_169
*287 n_171
*288 n_172
*289 n_173
*290 n_174
*291 n_175
*292 n_176
*293 n_177
*294 n_178
*295 n_179
*296 n_180
*297 n_181
*298 n_183
*299 n_184
*300 n_185
*301 n_186
*302 n_187
*303 n_188
*304 n_189
*305 n_190
*306 n_191
*307 n_192
*308 n_193
*309 n_194
*310 n_195
*311 n_196
*312 n_197
*313 n_198
*314 n_199
*315 n_200
*316 n_201
*317 n_202
*318 n_203
*319 n_204
*320 n_205
*321 n_206
*322 n_207
*323 n_208
*324 n_209
*325 n_210
*326 n_212
*327 n_215
*328 n_216
*329 n_217
*330 n_218
*331 n_220
*332 n_221
*333 n_222
*334 n_223
*335 n_224
*336 n_225
*337 n_226
*338 n_227
*339 n_228
*340 n_229
*341 n_230
*342 n_231
*343 n_232
*344 n_233
*345 n_234
*346 n_235
*347 n_236
*348 n_237
*349 n_238
*350 n_239
*351 n_240
*352 n_241
*353 n_242
*354 n_243
*355 n_244
*356 n_245
*357 n_246
*358 n_247
*359 n_248
*360 n_249
*361 n_250
*362 n_251
*363 n_252
*364 n_253
*365 n_254
*366 n_255
*367 n_256
*368 n_257
*369 n_258
*370 n_259
*371 n_260
*372 n_261
*373 n_262
*374 n_263
*375 n_264
*376 n_265
*377 n_266
*378 n_267
*379 n_268
*380 n_269
*381 n_270
*382 n_271
*383 n_272
*384 n_273
*385 n_274
*386 n_275
*387 n_276
*388 n_277
*389 n_278
*390 n_279
*391 n_280
*392 n_281
*393 n_282
*394 n_283
*395 n_284
*396 n_285
*397 n_286
*398 n_287
*399 n_288
*400 n_289
*401 n_290
*402 n_291
*403 n_292
*404 n_293
*405 n_294
*406 n_295
*407 n_296
*408 n_297
*409 n_298
*410 n_299
*411 n_300
*412 n_301
*413 n_302
*414 n_303
*415 n_304
*416 n_305
*417 n_306
*418 n_307
*419 n_308
*420 n_309
*421 n_310
*422 n_311
*423 n_312
*424 n_313
*425 n_314
*426 n_315
*427 n_316
*428 n_317
*429 n_318
*430 n_319
*431 n_320
*432 n_321
*433 n_322
*434 n_323
*435 n_324
*436 n_325
*437 n_326
*438 n_327
*439 n_328
*440 n_329
*441 n_330
*442 n_331
*443 n_332
*444 n_333
*445 n_334
*446 n_335
*447 n_336
*448 n_337
*449 n_338
*450 n_339
*451 n_340
*452 n_341
*453 n_342
*454 n_343
*455 n_344
*456 n_345
*457 n_346
*458 n_347
*459 n_348
*460 n_349
*461 n_350
*462 n_351
*463 n_352
*464 n_353
*465 n_354
*466 n_355
*467 n_356
*468 n_357
*469 n_358
*470 n_359
*471 n_360
*472 n_361
*473 n_362
*474 n_363
*475 n_364
*476 n_365
*477 n_366
*478 n_367
*479 n_368
*480 n_369
*481 n_370
*482 n_371
*483 n_372
*484 n_373
*485 n_374
*486 n_375
*487 n_376
*488 n_377
*489 n_378
*490 n_379
*491 n_380
*492 n_381
*493 n_382
*494 n_383
*495 n_384
*496 n_385
*497 n_386
*498 n_387
*499 n_388
*500 n_389
*501 n_390
*502 n_391
*503 n_392
*504 n_393
*505 n_394
*506 n_395
*507 n_396
*508 n_397
*509 n_398
*510 n_399
*511 n_400
*512 n_401
*513 n_402
*514 n_403
*515 n_404
*516 n_405
*517 n_406
*518 n_407
*519 n_408
*520 n_409
*521 n_410
*522 n_411
*523 n_412
*524 n_413
*525 n_414
*526 n_415
*527 n_416
*528 n_417
*529 n_418
*530 n_419
*531 n_420
*532 n_421
*533 n_422
*534 n_423
*535 n_424
*536 n_425
*537 n_426
*538 n_427
*539 n_428
*540 n_429
*541 n_430
*542 n_431
*543 n_432
*544 n_433
*545 n_434
*546 n_435
*547 n_436
*548 n_437
*549 n_438
*550 n_439
*551 n_440
*552 n_441
*553 n_442
*554 n_443
*555 n_444
*556 n_445
*557 n_446
*558 n_447
*559 n_448
*560 n_449
*561 n_450
*562 n_451
*563 n_452
*564 n_453
*565 n_454
*566 n_455
*567 n_456
*568 n_457
*569 n_458
*570 n_459
*571 n_460
*572 n_461
*573 n_462
*574 n_463
*575 n_464
*576 n_465
*577 n_466
*578 n_467
*579 n_468
*580 n_469
*581 n_470
*582 n_471
*583 n_472
*584 n_473
*585 n_474
*586 n_475
*587 n_476
*588 n_477
*589 n_478
*590 n_479
*591 n_480
*592 n_481
*593 n_482
*594 n_483
*595 n_484
*596 n_485
*597 n_486
*598 n_487
*599 n_488
*600 n_489
*601 n_490
*602 n_491
*603 n_492
*604 n_493
*605 n_494
*606 n_495
*607 n_496
*608 n_497
*609 n_498
*610 n_499
*611 n_500
*612 n_501
*613 n_502
*614 n_503
*615 n_504
*616 n_505
*617 n_506
*618 n_507
*619 n_508
*620 n_509
*621 n_510
*622 n_511
*623 n_512
*624 n_513
*625 n_514
*626 n_515
*627 n_516
*628 n_517
*629 n_518
*630 n_519
*631 n_520
*632 n_521
*633 n_522
*634 n_523
*635 n_524
*636 n_525
*637 n_526
*638 n_527
*639 n_528
*640 n_529
*641 n_530
*642 n_531
*643 n_532
*644 n_533
*645 n_534
*646 n_535
*647 n_536
*648 n_537
*649 n_538
*650 n_539
*651 n_540
*652 n_541
*653 n_542
*654 n_543
*655 n_544
*656 n_545
*657 n_546
*658 n_547
*659 n_548
*660 n_549
*661 n_550
*662 n_551
*663 n_552
*664 n_553
*665 n_554
*666 n_555
*667 n_556
*668 n_557
*669 n_558
*670 n_559
*671 n_560
*672 n_561
*673 n_562
*674 n_563
*675 n_564
*676 n_565
*677 n_567
*678 n_568
*679 n_569
*680 n_570
*681 n_571
*682 n_572
*683 n_573
*684 n_574
*685 n_575
*686 n_576
*687 n_577
*688 n_578
*689 n_579
*690 n_580
*691 n_581
*692 n_582
*693 n_583
*694 n_584
*695 n_596
*696 n_597
*697 n_628
*698 n_629
*699 n_630
*700 n_631
*701 n_633
*702 n_636
*703 opening
*704 reached
*705 waiting
*706 buttons_inst/l_btn_in[7]
*707 buttons_inst/l_btn_in[6]
*708 buttons_inst/l_btn_in[5]
*709 buttons_inst/l_btn_in[4]
*710 buttons_inst/l_btn_in[3]
*711 buttons_inst/l_btn_in[2]
*712 buttons_inst/l_btn_in[1]
*713 buttons_inst/l_btn_in[0]
*714 buttons_inst/l_inactivate_in_levels[7]
*715 buttons_inst/l_inactivate_in_levels[6]
*716 buttons_inst/l_inactivate_in_levels[5]
*717 buttons_inst/l_inactivate_in_levels[4]
*718 buttons_inst/l_inactivate_in_levels[3]
*719 buttons_inst/l_inactivate_in_levels[2]
*720 buttons_inst/l_inactivate_in_levels[1]
*721 buttons_inst/l_inactivate_in_levels[0]
*722 buttons_inst/UNCONNECTED
*723 buttons_inst/UNCONNECTED0
*724 buttons_inst/UNCONNECTED1
*725 buttons_inst/UNCONNECTED2
*726 buttons_inst/UNCONNECTED3
*727 buttons_inst/UNCONNECTED4
*728 buttons_inst/UNCONNECTED5
*729 buttons_inst/UNCONNECTED6
*730 buttons_inst/UNCONNECTED7
*731 buttons_inst/UNCONNECTED8
*732 buttons_inst/UNCONNECTED9
*733 buttons_inst/UNCONNECTED10
*734 buttons_inst/UNCONNECTED11
*735 buttons_inst/UNCONNECTED12
*736 buttons_inst/UNCONNECTED13
*737 buttons_inst/n_1
*738 buttons_inst/n_2
*739 buttons_inst/n_3
*740 buttons_inst/n_4
*741 buttons_inst/n_5
*742 buttons_inst/n_6
*743 buttons_inst/n_7
*744 buttons_inst/n_8
*745 buttons_inst/n_9
*746 buttons_inst/n_10
*747 buttons_inst/n_11
*748 buttons_inst/n_12
*749 buttons_inst/n_13
*750 buttons_inst/n_14
*751 buttons_inst/n_15
*752 buttons_inst/n_16
*753 buttons_inst/n_17
*754 buttons_inst/n_18
*755 buttons_inst/n_19
*756 buttons_inst/n_20
*757 buttons_inst/n_21
*758 buttons_inst/n_22
*759 buttons_inst/n_23
*760 buttons_inst/n_24
*761 buttons_inst/n_25
*762 buttons_inst/n_27
*763 buttons_inst/n_28
*764 buttons_inst/n_29
*765 buttons_inst/n_30
*766 buttons_inst/n_31
*767 buttons_inst/n_32
*768 buttons_inst/n_33
*769 buttons_inst/n_34
*770 buttons_inst/n_41
*771 buttons_inst/n_42
*772 buttons_inst/n_43
*773 buttons_inst/n_44
*774 buttons_inst/n_45
*775 buttons_inst/n_46
*776 buttons_inst/n_47
*777 buttons_inst/n_48
*778 buttons_inst/n_49
*779 buttons_inst/n_50
*780 buttons_inst/n_51
*781 buttons_inst/n_52
*782 buttons_inst/n_60
*783 buttons_inst/n_61
*784 buttons_inst/n_62
*785 buttons_inst/n_63
*786 buttons_inst/n_64
*787 buttons_inst/n_65
*788 buttons_inst/n_66
*789 buttons_inst/n_67
*790 buttons_inst/n_68
*791 buttons_inst/n_69
*792 buttons_inst/n_70
*793 buttons_inst/n_71
*794 buttons_inst/n_72
*795 buttons_inst/n_73
*796 buttons_inst/n_140
*797 buttons_inst/n_142
*798 buttons_inst/n_143
*799 buttons_inst/n_144
*800 buttons_inst/n_145
*801 buttons_inst/n_146
*802 buttons_inst/n_147
*803 buttons_inst/n_148
*804 buttons_inst/n_149
*805 buttons_inst/n_150
*806 buttons_inst/n_151
*807 buttons_inst/n_152
*808 buttons_inst/n_153
*809 buttons_inst/n_154
*810 buttons_inst/n_155
*811 FE_OFC0_an_reset
*812 FE_DBTC1_an_reset
*813 FE_DBTC0_buttons_block
*814 buttons_inst/active_out_up_levels_reg\[0\]
*815 buttons_inst/active_out_down_levels_reg\[7\]
*816 buttons_inst/g2939
*817 buttons_inst/g2940
*818 buttons_inst/g2941
*819 buttons_inst/l_btn_in_reg\[1\]
*820 buttons_inst/l_btn_in_reg\[2\]
*821 buttons_inst/l_btn_in_reg\[3\]
*822 buttons_inst/l_btn_in_reg\[4\]
*823 buttons_inst/l_btn_in_reg\[5\]
*824 buttons_inst/l_btn_in_reg\[6\]
*825 buttons_inst/l_btn_in_reg\[7\]
*826 buttons_inst/l_inactivate_in_levels_reg\[0\]
*827 buttons_inst/l_inactivate_in_levels_reg\[1\]
*828 buttons_inst/l_inactivate_in_levels_reg\[5\]
*829 buttons_inst/l_inactivate_in_levels_reg\[2\]
*830 buttons_inst/l_inactivate_in_levels_reg\[3\]
*831 buttons_inst/l_inactivate_in_levels_reg\[4\]
*832 buttons_inst/l_btn_in_reg\[0\]
*833 buttons_inst/l_inactivate_in_levels_reg\[6\]
*834 buttons_inst/l_inactivate_in_levels_reg\[7\]
*835 buttons_inst/g2958
*836 buttons_inst/g2959
*837 buttons_inst/g2960
*838 buttons_inst/g2961
*839 buttons_inst/active_in_levels_reg\[0\]
*840 buttons_inst/active_in_levels_reg\[1\]
*841 buttons_inst/active_in_levels_reg\[2\]
*842 buttons_inst/active_in_levels_reg\[3\]
*843 buttons_inst/active_in_levels_reg\[4\]
*844 buttons_inst/active_in_levels_reg\[5\]
*845 buttons_inst/active_in_levels_reg\[6\]
*846 buttons_inst/active_in_levels_reg\[7\]
*847 buttons_inst/active_out_down_levels_reg\[1\]
*848 buttons_inst/active_out_down_levels_reg\[2\]
*849 buttons_inst/active_out_down_levels_reg\[3\]
*850 buttons_inst/active_out_down_levels_reg\[4\]
*851 buttons_inst/active_out_down_levels_reg\[5\]
*852 buttons_inst/active_out_down_levels_reg\[6\]
*853 buttons_inst/active_out_up_levels_reg\[1\]
*854 buttons_inst/active_out_up_levels_reg\[2\]
*855 buttons_inst/active_out_up_levels_reg\[3\]
*856 buttons_inst/active_out_up_levels_reg\[4\]
*857 buttons_inst/active_out_up_levels_reg\[5\]
*858 buttons_inst/active_out_up_levels_reg\[6\]
*859 buttons_inst/g3797
*860 buttons_inst/g3798
*861 buttons_inst/g3799
*862 buttons_inst/g3800
*863 buttons_inst/g3801
*864 buttons_inst/g3802
*865 buttons_inst/g3803
*866 buttons_inst/g3817
*867 buttons_inst/g3825
*868 buttons_inst/g3826
*869 buttons_inst/g3827
*870 buttons_inst/g3828
*871 buttons_inst/g3829
*872 buttons_inst/g3830
*873 buttons_inst/g3831
*874 buttons_inst/g3832
*875 buttons_inst/g3833
*876 buttons_inst/g3834
*877 buttons_inst/g3835
*878 buttons_inst/g3836
*879 buttons_inst/g3837
*880 buttons_inst/g3838
*881 buttons_inst/g3839
*882 buttons_inst/g3840
*883 buttons_inst/g3841
*884 buttons_inst/g3842
*885 buttons_inst/g3843
*886 buttons_inst/g3844
*887 buttons_inst/g3851
*888 buttons_inst/g3852
*889 buttons_inst/g3853
*890 buttons_inst/g3854
*891 buttons_inst/g3855
*892 buttons_inst/g3856
*893 buttons_inst/g3857
*894 buttons_inst/g3858
*895 buttons_inst/g3859
*896 buttons_inst/g3860
*897 buttons_inst/g3861
*898 buttons_inst/g3862
*899 buttons_inst/g3863
*900 buttons_inst/g3865
*901 buttons_inst/g3866
*902 buttons_inst/g3867
*903 buttons_inst/g3868
*904 buttons_inst/g3869
*905 buttons_inst/g3870
*906 buttons_inst/g3871
*907 buttons_inst/g3872
*908 buttons_inst/g3873
*909 buttons_inst/g3874
*910 buttons_inst/g3875
*911 buttons_inst/g3876
*912 buttons_inst/g2
*913 buttons_inst/g3
*914 buttons_inst/g3878
*915 buttons_inst/g3879
*916 buttons_inst/g3880
*917 buttons_inst/g3881
*918 buttons_inst/g3882
*919 buttons_inst/g3883
*920 buttons_inst/g3884
*921 buttons_inst/g3885
*922 buttons_inst/g3886
*923 buttons_inst/g3887
*924 buttons_inst/g3888
*925 buttons_inst/g3889
*926 g19157
*927 g19158
*928 g19159
*929 g19160
*930 g19161
*931 g19162
*932 g19163
*933 g19164
*934 g19165
*935 g19166
*936 g19167
*937 g19168
*938 g19169
*939 g19170
*940 g19171
*941 g19172
*942 g19173
*943 g19174
*944 g19175
*945 bell_out_reg
*946 g19177
*947 g19178
*948 g19179
*949 g19180
*950 g19181
*951 g19182
*952 closing_reg
*953 counter_reg\[0\]
*954 counter_reg\[1\]
*955 counter_reg\[2\]
*956 counter_reg\[3\]
*957 counter_reg\[4\]
*958 counter_reg\[5\]
*959 counter_reg\[6\]
*960 counter_reg\[7\]
*961 counter_reg\[8\]
*962 counter_reg\[9\]
*963 counter_reg\[10\]
*964 counter_reg\[11\]
*965 counter_reg\[12\]
*966 counter_reg\[13\]
*967 counter_reg\[15\]
*968 door_reg\[0\]
*969 door_reg\[1\]
*970 engine_reg\[0\]
*971 engine_reg\[1\]
*972 i_direction_reg
*973 i_engine_reg\[0\]
*974 i_engine_reg\[1\]
*975 inactivate_in_levels_reg\[0\]
*976 inactivate_in_levels_reg\[1\]
*977 inactivate_in_levels_reg\[2\]
*978 inactivate_in_levels_reg\[3\]
*979 inactivate_in_levels_reg\[4\]
*980 inactivate_in_levels_reg\[5\]
*981 inactivate_in_levels_reg\[6\]
*982 inactivate_in_levels_reg\[7\]
*983 inactivate_out_down_levels_reg\[1\]
*984 inactivate_out_down_levels_reg\[2\]
*985 inactivate_out_down_levels_reg\[3\]
*986 inactivate_out_down_levels_reg\[4\]
*987 inactivate_out_down_levels_reg\[5\]
*988 inactivate_out_down_levels_reg\[6\]
*989 inactivate_out_up_levels_reg\[1\]
*990 inactivate_out_up_levels_reg\[2\]
*991 inactivate_out_up_levels_reg\[3\]
*992 inactivate_out_up_levels_reg\[4\]
*993 inactivate_out_up_levels_reg\[5\]
*994 inactivate_out_up_levels_reg\[6\]
*995 level_display_reg\[0\]
*996 level_display_reg\[1\]
*997 level_display_reg\[2\]
*998 level_display_reg\[3\]
*999 opening_reg
*1000 saved_state_reg\[0\]
*1001 saved_state_reg\[1\]
*1002 saved_state_reg\[2\]
*1003 saved_state_reg\[3\]
*1004 state_reg\[0\]
*1005 state_reg\[1\]
*1006 state_reg\[2\]
*1007 state_reg\[3\]
*1008 state_reg\[4\]
*1009 waiting_reg
*1010 g39590
*1011 g39592
*1012 g39594
*1013 g39595
*1014 g39596
*1015 g39597
*1016 g39598
*1017 g39601
*1018 g39602
*1019 g39603
*1020 g39606
*1021 g39607
*1022 g39609
*1023 g39612
*1024 g39613
*1025 g39614
*1026 g39617
*1027 g39618
*1028 g39619
*1029 g39621
*1030 g39623
*1031 g39624
*1032 g39625
*1033 g39629
*1034 g39630
*1035 g39631
*1036 g39632
*1037 g39633
*1038 g39634
*1039 g39635
*1040 g39636
*1041 g39637
*1042 g39638
*1043 g39639
*1044 g39640
*1045 g39644
*1046 g39645
*1047 g39646
*1048 g39647
*1049 g39648
*1050 g39649
*1051 g39652
*1052 g39653
*1053 g39654
*1054 g39655
*1055 g39656
*1056 g39657
*1057 g39658
*1058 g39659
*1059 g39667
*1060 g39669
*1061 g39670
*1062 g39671
*1063 g39672
*1064 g39673
*1065 g39674
*1066 g39677
*1067 g39678
*1068 g39679
*1069 g39680
*1070 g39681
*1071 g39682
*1072 g39683
*1073 g39684
*1074 g39685
*1075 g39686
*1076 g39687
*1077 g39688
*1078 g39689
*1079 g39690
*1080 g39691
*1081 g39692
*1082 g39693
*1083 g39694
*1084 g39695
*1085 g39696
*1086 g39697
*1087 g39698
*1088 g39699
*1089 g39700
*1090 g39701
*1091 g39702
*1092 g39703
*1093 g39704
*1094 g39705
*1095 g39706
*1096 g39707
*1097 g39708
*1098 g39709
*1099 g39710
*1100 g39711
*1101 g39712
*1102 g39713
*1103 g39714
*1104 g39716
*1105 g39717
*1106 g39718
*1107 g39719
*1108 g39720
*1109 g39722
*1110 g39723
*1111 g39724
*1112 g39725
*1113 g39728
*1114 g39730
*1115 g39731
*1116 g39732
*1117 g39733
*1118 g39734
*1119 g39735
*1120 g39736
*1121 g39737
*1122 g39738
*1123 g39739
*1124 g39740
*1125 g39741
*1126 g39742
*1127 g39743
*1128 g39744
*1129 g39746
*1130 g39747
*1131 g39748
*1132 g39749
*1133 g39750
*1134 g39751
*1135 g39752
*1136 g39753
*1137 g39757
*1138 g39758
*1139 g39759
*1140 g39760
*1141 g39761
*1142 g39762
*1143 g39763
*1144 g39764
*1145 g39765
*1146 g39766
*1147 g39769
*1148 g39770
*1149 g39771
*1150 g39772
*1151 g39773
*1152 g39774
*1153 g39775
*1154 g39776
*1155 g39777
*1156 g39778
*1157 g39779
*1158 g39780
*1159 g39781
*1160 g39782
*1161 g39783
*1162 g39784
*1163 g39785
*1164 g39787
*1165 g39788
*1166 g39790
*1167 g39792
*1168 g39793
*1169 g39794
*1170 g39795
*1171 g39796
*1172 g39797
*1173 g39798
*1174 g39799
*1175 g39800
*1176 g39801
*1177 g39802
*1178 g39803
*1179 g39804
*1180 g39805
*1181 g39806
*1182 g39807
*1183 g39813
*1184 g39814
*1185 g39815
*1186 g39816
*1187 g39817
*1188 g39818
*1189 g39819
*1190 g39820
*1191 g39821
*1192 g39822
*1193 g39823
*1194 g39824
*1195 g39825
*1196 g39826
*1197 g39827
*1198 g39828
*1199 g39829
*1200 g39830
*1201 g39831
*1202 g39832
*1203 g39833
*1204 g39834
*1205 g39837
*1206 g39838
*1207 g39839
*1208 g39840
*1209 g39841
*1210 g39842
*1211 g39843
*1212 g39844
*1213 g39845
*1214 g39846
*1215 g39847
*1216 g39848
*1217 g39849
*1218 g39850
*1219 g39851
*1220 g39852
*1221 g39853
*1222 g39854
*1223 g39855
*1224 g39856
*1225 g39857
*1226 g39858
*1227 g39859
*1228 g39860
*1229 g39861
*1230 g39862
*1231 g39863
*1232 g39866
*1233 g39867
*1234 g39868
*1235 g39869
*1236 g39870
*1237 g39871
*1238 g39872
*1239 g39873
*1240 g39874
*1241 g39875
*1242 g39876
*1243 g39877
*1244 g39878
*1245 g39879
*1246 g39880
*1247 g39881
*1248 g39882
*1249 g39883
*1250 g39884
*1251 g39885
*1252 g39886
*1253 g39887
*1254 g39888
*1255 g39889
*1256 g39890
*1257 g39892
*1258 g39894
*1259 g39895
*1260 g39896
*1261 g39897
*1262 g39898
*1263 g39899
*1264 g39900
*1265 g39901
*1266 g39902
*1267 g39903
*1268 g39904
*1269 g39905
*1270 g39906
*1271 g39907
*1272 g39908
*1273 g39911
*1274 g39912
*1275 g39913
*1276 g39914
*1277 g39915
*1278 g39916
*1279 g39917
*1280 g39918
*1281 g39919
*1282 g39920
*1283 g39921
*1284 g39922
*1285 g39923
*1286 g39924
*1287 g39925
*1288 g39926
*1289 g39927
*1290 g39928
*1291 g39931
*1292 g39932
*1293 g39933
*1294 g39934
*1295 g39935
*1296 g39936
*1297 g39937
*1298 g39938
*1299 g39939
*1300 g39940
*1301 g39941
*1302 g39942
*1303 g39943
*1304 g39944
*1305 g39945
*1306 g39946
*1307 g39947
*1308 g39948
*1309 g39949
*1310 g39950
*1311 g39951
*1312 g39952
*1313 g39953
*1314 g39954
*1315 g39955
*1316 g39956
*1317 g39957
*1318 g39958
*1319 g39959
*1320 g39960
*1321 g39961
*1322 g39962
*1323 g39963
*1324 g39964
*1325 g39965
*1326 g39967
*1327 g39968
*1328 g39969
*1329 g39970
*1330 g39971
*1331 g39972
*1332 g39973
*1333 g39974
*1334 g39975
*1335 g39976
*1336 g39977
*1337 g39978
*1338 g39979
*1339 g39980
*1340 g39981
*1341 g39982
*1342 g39983
*1343 g39984
*1344 g39985
*1345 g39986
*1346 g39987
*1347 g39989
*1348 g39990
*1349 g39992
*1350 g39993
*1351 g39994
*1352 g39995
*1353 g39996
*1354 g39997
*1355 g40000
*1356 g40001
*1357 g40002
*1358 g40003
*1359 g40004
*1360 g40005
*1361 g40006
*1362 g40007
*1363 g40008
*1364 g40009
*1365 g40010
*1366 g40011
*1367 g40012
*1368 g40013
*1369 g40014
*1370 g40015
*1371 g40016
*1372 g40017
*1373 g40018
*1374 g40019
*1375 g40020
*1376 g40021
*1377 g40023
*1378 g40024
*1379 g40025
*1380 g40026
*1381 g40028
*1382 g40029
*1383 g40030
*1384 g40031
*1385 g40032
*1386 g40033
*1387 g40034
*1388 g40035
*1389 g40036
*1390 g40037
*1391 g40038
*1392 g40039
*1393 g40040
*1394 g40041
*1395 g40042
*1396 g40043
*1397 g40044
*1398 g40045
*1399 g40047
*1400 g40048
*1401 g40049
*1402 g40050
*1403 g40051
*1404 g40052
*1405 g40053
*1406 g40054
*1407 g40055
*1408 g40056
*1409 g40057
*1410 g40058
*1411 g40059
*1412 g40060
*1413 g40061
*1414 g40064
*1415 g40065
*1416 g40066
*1417 g40067
*1418 g40068
*1419 g40069
*1420 g40070
*1421 g40071
*1422 g40072
*1423 g40073
*1424 g40074
*1425 g40075
*1426 g40076
*1427 g40077
*1428 g40078
*1429 g40079
*1430 g40080
*1431 g40081
*1432 g40082
*1433 g40083
*1434 g40084
*1435 g40085
*1436 g40086
*1437 g40087
*1438 g40088
*1439 g40089
*1440 g40090
*1441 g40091
*1442 g40092
*1443 g40093
*1444 g40094
*1445 g40095
*1446 g40096
*1447 g40097
*1448 g40098
*1449 g40099
*1450 g40100
*1451 g40101
*1452 g40102
*1453 g40103
*1454 g40104
*1455 g40105
*1456 g40106
*1457 g40107
*1458 g40108
*1459 g40109
*1460 g40110
*1461 g40111
*1462 g40112
*1463 g40113
*1464 g40114
*1465 g40115
*1466 g40116
*1467 g40117
*1468 g40118
*1469 g40119
*1470 g40120
*1471 g40121
*1472 g40122
*1473 g40123
*1474 g40124
*1475 g40125
*1476 g40126
*1477 g40127
*1478 g40128
*1479 g40129
*1480 g40130
*1481 g40131
*1482 g40132
*1483 g40133
*1484 g40134
*1485 g40135
*1486 g40136
*1487 g40137
*1488 g40138
*1489 g40139
*1490 g40140
*1491 g40141
*1492 g40142
*1493 g40143
*1494 g40144
*1495 g40145
*1496 g40146
*1497 g40147
*1498 g40148
*1499 g40149
*1500 g40150
*1501 g40151
*1502 g40152
*1503 g40153
*1504 g40154
*1505 g40155
*1506 g40156
*1507 g40157
*1508 g40158
*1509 g40159
*1510 g40160
*1511 g40161
*1512 g40162
*1513 g40163
*1514 g40164
*1515 g40165
*1516 g40166
*1517 g40167
*1518 g40168
*1519 g40169
*1520 g40170
*1521 g40171
*1522 g40172
*1523 g40173
*1524 g40174
*1525 g40175
*1526 g40176
*1527 g40177
*1528 g40178
*1529 g40179
*1530 g40180
*1531 g40181
*1532 g40182
*1533 g40183
*1534 g40184
*1535 g40185
*1536 g40186
*1537 g40187
*1538 g40188
*1539 g40189
*1540 g40190
*1541 g40191
*1542 g40192
*1543 g40193
*1544 g40194
*1545 g40195
*1546 g40197
*1547 g40198
*1548 g40199
*1549 g40200
*1550 g40203
*1551 g40204
*1552 counter_reg\[14\]
*1553 g2
*1554 g40207
*1555 g40216
*1556 g40217
*1557 g40218
*1558 direction_reg
*1559 letout_reg


*PORTS

*4 I *C 0 0
*5 I *C 0 0
*6 I *C 0 0
*7 I *C 0 0
*8 I *C 0 0
*9 I *C 0 0
*10 I *C 0 0
*11 I *C 0 0
*12 I *C 0 0
*13 I *C 0 0
*14 I *C 0 0
*15 I *C 0 0
*16 I *C 0 0
*17 I *C 0 0
*18 I *C 0 0
*19 I *C 0 0
*20 I *C 0 0
*21 I *C 0 0
*22 I *C 0 0
*23 I *C 0 0
*24 I *C 0 0
*25 I *C 0 0
*26 I *C 0 0
*27 I *C 0 0
*28 I *C 0 0
*29 I *C 0 0
*30 I *C 0 0
*31 I *C 0 0
*32 I *C 0 0
*33 I *C 0 0
*34 I *C 0 0
*35 I *C 0 0
*36 I *C 0 0
*37 I *C 0 0
*38 O *C 0 0
*39 O *C 0 0
*40 O *C 0 0
*41 O *C 0 0
*42 O *C 0 0
*43 O *C 0 0
*44 O *C 0 0
*45 O *C 0 0
*46 O *C 0 0
*47 O *C 0 0


*D_NET *1 0.0653544

*CONN
*I *1558:RN I *C 42.435 80.155 *L 0.0053 *D SDFFRQX2M
*I *1528:A I *C 48.175 94.915 *L 0.00377 *D NAND2X2M
*I *1287:A I *C 45.715 86.305 *L 0.00377 *D NAND2X2M
*I *994:RN I *C 131.405 62.525 *L 0.0051 *D DFFRQX2M
*I *992:RN I *C 131.405 79.745 *L 0.0051 *D DFFRQX2M
*I *991:RN I *C 127.715 102.705 *L 0.0051 *D DFFRQX2M
*I *990:RN I *C 74.825 114.185 *L 0.0051 *D DFFRQX2M
*I *989:RN I *C 48.175 114.185 *L 0.0051 *D DFFRQX2M
*I *988:RN I *C 122.795 74.005 *L 0.0051 *D DFFRQX2M
*I *986:RN I *C 123.205 85.485 *L 0.0051 *D DFFRQX2M
*I *985:RN I *C 114.185 95.735 *L 0.0051 *D DFFRQX2M
*I *984:RN I *C 91.225 114.185 *L 0.0051 *D DFFRQX2M
*I *983:RN I *C 56.375 118.695 *L 0.0051 *D DFFRQX2M
*I *982:RN I *C 109.675 112.955 *L 0.0051 *D DFFRQX2M
*I *979:RN I *C 123.205 95.735 *L 0.0051 *D DFFRQX2M
*I *978:RN I *C 102.295 108.445 *L 0.0051 *D DFFRQX2M
*I *977:RN I *C 108.445 112.955 *L 0.0051 *D DFFRQX2M
*I *976:RN I *C 53.915 108.445 *L 0.0051 *D DFFRQX2M
*I *975:RN I *C 39.565 101.475 *L 0.0051 *D DFFRQX2M
*I *972:RN I *C 44.485 101.065 *L 0.0053 *D SDFFRQX2M
*I *971:RN I *C 79.745 124.435 *L 0.0051 *D DFFRQX2M
*I *970:RN I *C 69.905 119.925 *L 0.0051 *D DFFRQX2M
*I *967:RN I *C 30.545 84.255 *L 0.0051 *D DFFRQX2M
*I *876:B I *C 117.465 83.435 *L 0.00241 *D NAND2X1M
*I *875:B I *C 122.795 106.395 *L 0.00241 *D NAND2X1M
*I *874:B I *C 82.615 120.745 *L 0.00241 *D NAND2X1M
*I *873:B I *C 52.275 120.745 *L 0.00241 *D NAND2X1M
*I *872:B I *C 130.175 71.955 *L 0.00241 *D NAND2X1M
*I *870:B I *C 119.925 86.305 *L 0.00241 *D NAND2X1M
*I *869:B I *C 121.565 100.655 *L 0.00241 *D NAND2X1M
*I *868:B I *C 94.095 112.135 *L 0.00241 *D NAND2X1M
*I *867:B I *C 66.215 123.615 *L 0.00241 *D NAND2X1M
*I *846:RN I *C 111.725 124.435 *L 0.0051 *D DFFRQX2M
*I *843:RN I *C 123.205 107.215 *L 0.0051 *D DFFRQX2M
*I *842:RN I *C 117.465 119.925 *L 0.0051 *D DFFRQX2M
*I *841:RN I *C 99.835 124.435 *L 0.0051 *D DFFRQX2M
*I *840:RN I *C 41.615 118.695 *L 0.0051 *D DFFRQX2M
*I *839:RN I *C 30.955 112.955 *L 0.0051 *D DFFRQX2M
*I *837:A I *C 122.385 117.875 *L 0.00153 *D CLKAND2X2M
*I *836:A I *C 49.405 106.395 *L 0.00153 *D CLKAND2X2M
*I *834:RN I *C 126.895 108.445 *L 0.0051 *D DFFRQX2M
*I *832:RN I *C 32.185 118.695 *L 0.00397 *D DFFRX1MTH
*I *831:RN I *C 122.795 96.965 *L 0.0051 *D DFFRQX2M
*I *830:RN I *C 100.245 114.185 *L 0.0051 *D DFFRQX2M
*I *829:RN I *C 99.015 119.925 *L 0.0051 *D DFFRQX2M
*I *827:RN I *C 51.865 112.955 *L 0.0051 *D DFFRQX2M
*I *826:RN I *C 31.365 102.705 *L 0.0051 *D DFFRQX2M
*I *825:RN I *C 122.385 124.435 *L 0.0051 *D DFFRQX2M
*I *822:RN I *C 122.795 112.955 *L 0.0051 *D DFFRQX2M
*I *821:RN I *C 101.475 124.435 *L 0.0051 *D DFFRQX2M
*I *820:RN I *C 81.385 124.435 *L 0.0051 *D DFFRQX2M
*I *819:RN I *C 32.185 119.925 *L 0.0051 *D DFFRQX2M
*I *817:B0 I *C 44.895 106.395 *L 0.00171 *D OAI2B11XLM
*I *816:B0 I *C 129.765 117.875 *L 0.00171 *D OAI2B11XLM
*I *811:Y O *C 45.305 75.235 *L 0 *D CLKBUFX6M

*CAP
1 *1558:RN 5.603e-05
2 *1528:A 5.603e-05
3 *1287:A 5.603e-05
4 *994:RN 4.964e-05
5 *992:RN 4.964e-05
6 *991:RN 5.603e-05
7 *990:RN 5.603e-05
8 *989:RN 5.603e-05
9 *988:RN 5.603e-05
10 *986:RN 9.696e-05
11 *985:RN 0.00011275
12 *984:RN 5.603e-05
13 *983:RN 0.00023162
14 *982:RN 7.964e-05
15 *979:RN 5.603e-05
16 *978:RN 5.603e-05
17 *977:RN 0.00013567
18 *976:RN 5.603e-05
19 *975:RN 5.603e-05
20 *972:RN 5.603e-05
21 *971:RN 5.308e-05
22 *970:RN 5.709e-05
23 *967:RN 7.188e-05
24 *876:B 5.603e-05
25 *875:B 5.603e-05
26 *874:B 5.603e-05
27 *873:B 5.603e-05
28 *872:B 0.00012033
29 *870:B 0.00010171
30 *869:B 2.482e-05
31 *868:B 2.482e-05
32 *867:B 5.603e-05
33 *846:RN 5.308e-05
34 *843:RN 5.603e-05
35 *842:RN 0.00011186
36 *841:RN 5.308e-05
37 *840:RN 5.308e-05
38 *839:RN 2.655e-05
39 *837:A 9.922e-05
40 *836:A 5.603e-05
41 *834:RN 5.603e-05
42 *832:RN 5.603e-05
43 *831:RN 5.603e-05
44 *830:RN 5.603e-05
45 *829:RN 7.388e-05
46 *827:RN 8.324e-05
47 *826:RN 6.085e-05
48 *825:RN 7.964e-05
49 *822:RN 5.603e-05
50 *821:RN 5.308e-05
51 *820:RN 5.308e-05
52 *819:RN 5.603e-05
53 *817:B0 5.603e-05
54 *816:B0 5.603e-05
55 *811:Y 5.603e-05
56 *1:55 0.00095423
57 *1:56 0.00095456
58 *1:57 0.00072704
59 *1:58 0.0003864
60 *1:59 0.0006525
61 *1:60 0.00078825
62 *1:61 0.00010321
63 *1:62 0.00027473
64 *1:63 0.00021949
65 *1:64 4.797e-05
66 *1:65 0.0003583
67 *1:66 0.00028311
68 *1:67 0.0001834
69 *1:68 0.00017597
70 *1:69 0.00015945
71 *1:70 0.00015945
72 *1:71 0.00015219
73 *1:72 0.00024992
74 *1:73 0.00041708
75 *1:74 0.00033774
76 *1:75 0.00033966
77 *1:76 0.00033966
78 *1:77 0.00039631
79 *1:78 0.00039631
80 *1:79 0.00014489
81 *1:80 0.00032531
82 *1:81 0.00010251
83 *1:82 0.00023704
84 *1:83 0.00015632
85 *1:84 0.00011861
86 *1:85 0.00014067
87 *1:86 0.00014067
88 *1:87 0.00042364